OPT_V10/Two_days_first_run/powerflow_results_t48.txt
Pandapower Network Debug Info
==================================================

BUS:
       vm_pu  va_degree      p_mw    q_mvar
0   0.992863   0.131270  0.000872  0.000816
1   0.988192   0.225167  0.001508  0.002025
2   0.983880   0.324754  0.002010  0.003435
3   0.989068   0.208660  0.002532  0.003961
4   0.989312   0.177899  0.003256  0.004670
5   0.991800   0.171009  0.003377  0.006474
6   0.990241   0.168200  0.001129  0.000825
7   0.997460   0.019679  0.001904  0.001958
8   0.997798   0.027343  0.002593  0.002527
9   0.999829   0.001230  0.009466  0.011099
10  0.999835   0.001156  0.009332  0.010037
11  0.999853   0.000975  0.013559  0.008837
12  0.999779   0.001270  0.009850  0.006603
13  0.999754   0.001364  0.010812  0.009287
14  0.999762   0.001340  0.012844  0.010684
15  0.999930   0.000599  0.000000  0.000000
16  0.999930   0.000605  0.000000  0.000000
17  0.999784   0.001292  0.000000  0.000000
18  0.999784   0.001302  0.000000  0.000000
19  1.000000   0.000000 -0.039435 -0.045316
20  1.000000   0.000006  0.000000  0.000000
21  1.000000   0.000000 -0.045916 -0.048131
22  1.000000   0.000007  0.000000  0.000000
--------------------------------------------------

LINE:
    p_from_mw  q_from_mvar   p_to_mw  q_to_mvar         pl_mw       ql_mvar  i_from_ka   i_to_ka      i_ka  vm_from_pu  va_from_degree  vm_to_pu  va_to_degree  loading_percent
0    0.039425     0.041316 -0.039422  -0.041314  3.190072e-06  2.487351e-06   0.002198  0.002198  0.002198    1.000000        0.000006  0.999930      0.000599         0.955700
1    0.045906     0.044131 -0.045896  -0.044123  1.090734e-05  8.504630e-06   0.002451  0.002451  0.002451    1.000000        0.000007  0.999784      0.001292         1.065649
2    0.032361     0.029975 -0.032358  -0.029973  2.691894e-06  2.098914e-06   0.001698  0.001698  0.001698    0.999930        0.000599  0.999853      0.000975         0.738232
3    0.009850     0.006603 -0.009850  -0.006603  4.865399e-08  3.793632e-08   0.000457  0.000457  0.000457    0.999784        0.001292  0.999779      0.001270         0.198497
4    0.023656     0.019972 -0.023656  -0.019971  5.243217e-07  4.088223e-07   0.001192  0.001192  0.001192    0.999784        0.001292  0.999762      0.001340         0.518212
5    0.007051     0.010339 -0.006978  -0.010282  7.326007e-05  5.712208e-05   0.018064  0.018064  0.018064    0.999930        0.000605  0.992863      0.131270         7.854020
6    0.004567     0.007346 -0.004509  -0.007301  5.807397e-05  4.528123e-05   0.012488  0.012488  0.012488    0.999784        0.001302  0.991800      0.171009         5.429534
7    0.001909     0.001962 -0.001904  -0.001958  5.063157e-06  3.947827e-06   0.003951  0.003951  0.003951    0.999784        0.001302  0.997460      0.019679         1.717968
8    0.005904     0.007240 -0.005889  -0.007229  1.501261e-05  1.170558e-05   0.013487  0.013487  0.013487    0.999784        0.001302  0.997798      0.027343         5.864005
9    0.009466     0.011099 -0.009466  -0.011099  7.361160e-08  5.739618e-08   0.000562  0.000562  0.000562    0.999835        0.001156  0.999829      0.001230         0.244156
10   0.018799     0.021136 -0.018798  -0.021135  3.914237e-07  3.051995e-07   0.001089  0.001089  0.001089    0.999853        0.000975  0.999835      0.001156         0.473434
11   0.010812     0.009287 -0.010812  -0.009287  9.940398e-08  7.750692e-08   0.000549  0.000549  0.000549    0.999762        0.001340  0.999754      0.001364         0.238582
12  -0.003533    -0.005472  0.003559   0.005492  2.570544e-05  2.004295e-05   0.009514  0.009514  0.009514    0.988192        0.225167  0.992863      0.131270         4.136574
13  -0.002532    -0.003961  0.002547   0.003973  1.508620e-05  1.176296e-05   0.006861  0.006861  0.006861    0.989068        0.208660  0.992863      0.131270         2.983018
14  -0.002010    -0.003435  0.002025   0.003447  1.480422e-05  1.154310e-05   0.005839  0.005839  0.005839    0.983880        0.324754  0.988192      0.225167         2.538736
15   0.003296     0.004702 -0.003256  -0.004670  4.029140e-05  3.141587e-05   0.008306  0.008306  0.008306    0.997798        0.027343  0.989312      0.177899         3.611240
16  -0.001129    -0.000825  0.001131   0.000827  1.737340e-06  1.354633e-06   0.002039  0.002039  0.002039    0.990241        0.168200  0.991800      0.171009         0.886501
--------------------------------------------------

TRAFO:
    p_hv_mw  q_hv_mvar   p_lv_mw  q_lv_mvar    pl_mw  ql_mvar   i_hv_ka   i_lv_ka  vm_hv_pu  va_hv_degree  vm_lv_pu  va_lv_degree  loading_percent
0  0.007061   0.011339 -0.007051  -0.010339  0.00001    0.001  0.000514  0.018064  0.999930      0.000599  0.999930      0.000605         0.133585
1  0.012389   0.017548 -0.012379  -0.016548  0.00001    0.001  0.000827  0.029835  0.999784      0.001292  0.999784      0.001302         0.214852
2  0.039435   0.045316 -0.039425  -0.041316  0.00001    0.004  0.000495  0.002198  1.000000      0.000000  1.000000      0.000006         0.150181
3  0.045916   0.048131 -0.045906  -0.044131  0.00001    0.004  0.000549  0.002451  1.000000      0.000000  1.000000      0.000007         0.166301
--------------------------------------------------
